$DATA1 SOURCE='PrimeSim HSPICE' VERSION='W-2024.09 linux64' PARAM_COUNT=0
.TITLE '* tb_sa_stsa.sp — smoke test for sa_stsa only'
 t_cross          out_final        vout_pre         vout_post       
 vnint_pre        vnint_post       e_sa_cap         temper          
 alter#          
  5.214e-10          0.0              0.4500           0.0          
    0.0           -1.863e-03       -1.012e-16         25.0000       
2               
