$DATA1 SOURCE='PrimeSim HSPICE' VERSION='W-2024.09 linux64' PARAM_COUNT=0
.TITLE '* tb_sa_wta8.sp — smoke test for sa_wta8'
 t_cross          out_final        vout_pre         vout_post       
 vnint_pre        vnint_post       e_sa_cap         temper          
 alter#          
  5.201e-10          0.9000           0.4500           0.9000       
    0.0            7.499e-02        3.600e-16         25.0000       
1               
