$DATA1 SOURCE='PrimeSim HSPICE' VERSION='W-2024.09 linux64' PARAM_COUNT=0
.TITLE '* tb_sa_mt4.sp — smoke test for sa_mt4'
 t_cross90        out_final        vout_pre         vout_post       
 vnint_pre        vnint_post       e_sa_cap         temper          
 alter#          
 -7.600e-12          0.9000           0.4500           0.9000       
    0.0              0.3086         7.800e-16         25.0000       
2               
